/*--------------------------------*- C++ -*----------------------------------*\
  =========                 |
  \\      /  F ield         | OpenFOAM: The Open Source CFD Toolbox
   \\    /   O peration     | Website:  https://openfoam.org
    \\  /    A nd           | Version:  6
     \\/     M anipulation  |
\*---------------------------------------------------------------------------*/
FoamFile
{
    version     2.0;
    format      ascii;
    class       dictionary;
    location    "system";
    object      fvSchemes;
}
// * * * * * * * * * * * * * * * * * * * * * * * * * * * * * * * * * * * * * //

ddtSchemes
{
    //default         Euler;
    default         backward;
}

gradSchemes
{
    //default         Gauss linear;
    default         cellLimited Gauss linear 1;
}

divSchemes
{
    default             Gauss limitedLinear 1;
    div(phi,U)          Gauss limitedLinearV 1;
    div(phi,Yi)         Gauss limitedLinear01 1;
    div(phi,h)          Gauss limitedLinear 1;
    div(phi,K)          Gauss limitedLinear 1;
    div(phid,p)         Gauss limitedLinear 1;
    div(phi,epsilon)    Gauss limitedLinear 1;
    div(phi,Yi_h)       Gauss limitedLinear01 1;
    div(phi,k)          Gauss limitedLinear 1;
    div(((rho*nuEff)*dev2(T(grad(U)))))     Gauss linear;

/*
    div(phi,U)          Gauss upwind;
    div(phi,Z)          Gauss upwind;
    div(phi,varZ)       Gauss upwind;
    div(phi,Yi)         Gauss limitedLinear01 1;
    div(phi,K)          Gauss upwind;
    div(phid,p)         Gauss limitedLinear 1;
    div(phi,epsilon)    Gauss limitedLinear 1;
    div(phi,Yi_h)       Gauss limitedLinear01 1;
    div(phi,k)          Gauss limitedLinear 1;
    div(((rho*nuEff)*dev2(T(grad(U)))))     Gauss linear;
*/
}

laplacianSchemes
{
    default         Gauss linear corrected;
    //default         Gauss linear uncorrected;
}

interpolationSchemes
{
    default         linear;
}

snGradSchemes
{
    default         corrected;
    //default         uncorrected;
}


fluxRequired
{
    default         no;
    p;
}


// ************************************************************************* //
